12136798
  -OEChem-10052402053D

 48 50  0     0  0  0  0  0  0999 V2000
   -8.4388   -2.7512    0.1945 F   0  0  0  0  0  0  0  0  0  0  0  0
   -4.1010    1.8725    1.3222 O   0  0  0  0  0  0  0  0  0  0  0  0
    3.1618    1.1448   -1.9791 O   0  0  0  0  0  0  0  0  0  0  0  0
   -3.6702    0.0307   -0.0661 N   0  0  0  0  0  0  0  0  0  0  0  0
    2.9399    2.3981   -0.0340 N   0  0  0  0  0  0  0  0  0  0  0  0
   -3.9796   -2.3962   -1.5129 N   0  0  0  0  0  0  0  0  0  0  0  0
    7.2996   -1.9880    1.9010 N   0  0  0  0  0  0  0  0  0  0  0  0
    0.5294    2.7526   -0.2166 C   0  0  0  0  0  0  0  0  0  0  0  0
    1.9022    3.2920   -0.4973 C   0  0  0  0  0  0  0  0  0  0  0  0
   -2.0131    1.7563    0.3033 C   0  0  0  0  0  0  0  0  0  0  0  0
   -0.1006    1.9501   -1.1603 C   0  0  0  0  0  0  0  0  0  0  0  0
   -0.0982    3.0624    0.9843 C   0  0  0  0  0  0  0  0  0  0  0  0
   -1.3765    1.4501   -0.8996 C   0  0  0  0  0  0  0  0  0  0  0  0
   -1.3739    2.5623    1.2452 C   0  0  0  0  0  0  0  0  0  0  0  0
   -3.3426    1.2332    0.5756 C   0  0  0  0  0  0  0  0  0  0  0  0
   -4.8852   -0.6955   -0.0113 C   0  0  0  0  0  0  0  0  0  0  0  0
   -5.0275   -1.8773   -0.7199 C   0  0  0  0  0  0  0  0  0  0  0  0
   -5.9166   -0.1920    0.7655 C   0  0  0  0  0  0  0  0  0  0  0  0
   -6.2334   -2.5749   -0.6503 C   0  0  0  0  0  0  0  0  0  0  0  0
    3.4815    1.3966   -0.8219 C   0  0  0  0  0  0  0  0  0  0  0  0
   -7.1225   -0.8898    0.8351 C   0  0  0  0  0  0  0  0  0  0  0  0
   -7.2809   -2.0811    0.1272 C   0  0  0  0  0  0  0  0  0  0  0  0
    4.5313    0.6271   -0.0948 C   0  0  0  0  0  0  0  0  0  0  0  0
    5.1735   -0.3756   -0.7118 C   0  0  0  0  0  0  0  0  0  0  0  0
    6.2318   -1.1952   -0.0954 C   0  0  0  0  0  0  0  0  0  0  0  0
    7.1094   -1.9067   -0.8865 C   0  0  0  0  0  0  0  0  0  0  0  0
    6.3523   -1.2565    1.2722 C   0  0  0  0  0  0  0  0  0  0  0  0
    8.0978   -2.6710   -0.2764 C   0  0  0  0  0  0  0  0  0  0  0  0
    8.1499   -2.6780    1.1082 C   0  0  0  0  0  0  0  0  0  0  0  0
    2.0299    3.4722   -1.5714 H   0  0  0  0  0  0  0  0  0  0  0  0
    2.0487    4.2551    0.0050 H   0  0  0  0  0  0  0  0  0  0  0  0
    0.3798    1.7140   -2.1056 H   0  0  0  0  0  0  0  0  0  0  0  0
    0.3917    3.6870    1.7261 H   0  0  0  0  0  0  0  0  0  0  0  0
   -1.8484    0.8603   -1.6797 H   0  0  0  0  0  0  0  0  0  0  0  0
   -1.8498    2.8081    2.1910 H   0  0  0  0  0  0  0  0  0  0  0  0
   -2.9437   -0.4180   -0.6110 H   0  0  0  0  0  0  0  0  0  0  0  0
    3.2624    2.5189    0.9219 H   0  0  0  0  0  0  0  0  0  0  0  0
   -5.8818    0.7181    1.3437 H   0  0  0  0  0  0  0  0  0  0  0  0
   -6.3709   -3.5046   -1.1964 H   0  0  0  0  0  0  0  0  0  0  0  0
   -7.9393   -0.5071    1.4401 H   0  0  0  0  0  0  0  0  0  0  0  0
    4.7530    0.9294    0.9222 H   0  0  0  0  0  0  0  0  0  0  0  0
   -4.1244   -3.2611   -2.0180 H   0  0  0  0  0  0  0  0  0  0  0  0
   -3.1016   -1.9116   -1.6209 H   0  0  0  0  0  0  0  0  0  0  0  0
    4.9359   -0.6267   -1.7429 H   0  0  0  0  0  0  0  0  0  0  0  0
    7.0478   -1.8831   -1.9709 H   0  0  0  0  0  0  0  0  0  0  0  0
    5.6885   -0.7419    1.9579 H   0  0  0  0  0  0  0  0  0  0  0  0
    8.8052   -3.2430   -0.8659 H   0  0  0  0  0  0  0  0  0  0  0  0
    8.9021   -3.2580    1.6325 H   0  0  0  0  0  0  0  0  0  0  0  0
  1 22  1  0  0  0  0
  2 15  2  0  0  0  0
  3 20  2  0  0  0  0
  4 15  1  0  0  0  0
  4 16  1  0  0  0  0
  4 36  1  0  0  0  0
  5  9  1  0  0  0  0
  5 20  1  0  0  0  0
  5 37  1  0  0  0  0
  6 17  1  0  0  0  0
  6 42  1  0  0  0  0
  6 43  1  0  0  0  0
  7 27  1  0  0  0  0
  7 29  2  0  0  0  0
  8  9  1  0  0  0  0
  8 11  2  0  0  0  0
  8 12  1  0  0  0  0
  9 30  1  0  0  0  0
  9 31  1  0  0  0  0
 10 13  2  0  0  0  0
 10 14  1  0  0  0  0
 10 15  1  0  0  0  0
 11 13  1  0  0  0  0
 11 32  1  0  0  0  0
 12 14  2  0  0  0  0
 12 33  1  0  0  0  0
 13 34  1  0  0  0  0
 14 35  1  0  0  0  0
 16 17  2  0  0  0  0
 16 18  1  0  0  0  0
 17 19  1  0  0  0  0
 18 21  2  0  0  0  0
 18 38  1  0  0  0  0
 19 22  2  0  0  0  0
 19 39  1  0  0  0  0
 20 23  1  0  0  0  0
 21 22  1  0  0  0  0
 21 40  1  0  0  0  0
 23 24  2  0  0  0  0
 23 41  1  0  0  0  0
 24 25  1  0  0  0  0
 24 44  1  0  0  0  0
 25 26  1  0  0  0  0
 25 27  2  0  0  0  0
 26 28  2  0  0  0  0
 26 45  1  0  0  0  0
 27 46  1  0  0  0  0
 28 29  1  0  0  0  0
 28 47  1  0  0  0  0
 29 48  1  0  0  0  0
M  END
> <PUBCHEM_COMPOUND_CID>
12136798

> <PUBCHEM_CONFORMER_RMSD>
1

> <PUBCHEM_CONFORMER_DIVERSEORDER>
1
21
15
68
39
36
25
35
66
24
62
16
47
31
7
59
22
9
54
12
4
27
18
6
30
48
32
19
60
37
56
10
26
53
20
33
63
17
45
43
40
46
57
67
5
65
61
8
14
49
58
28
52
44
55
50
23
51
2
41
64
3
29
42
11
13
34
38

> <PUBCHEM_MMFF94_PARTIAL_CHARGES>
46
1 -0.19
10 0.09
11 -0.15
12 -0.15
13 -0.15
14 -0.15
15 0.54
16 0.12
17 0.1
18 -0.15
19 -0.15
2 -0.57
20 0.62
21 -0.15
22 0.19
23 -0.14
24 -0.18
25 0.03
26 -0.15
27 0.16
28 -0.15
29 0.16
3 -0.57
32 0.15
33 0.15
34 0.15
35 0.15
36 0.37
37 0.37
38 0.15
39 0.15
4 -0.55
40 0.15
41 0.15
42 0.4
43 0.4
44 0.15
45 0.15
46 0.15
47 0.15
48 0.15
5 -0.73
6 -0.9
7 -0.62
8 -0.14
9 0.44

> <PUBCHEM_EFFECTIVE_ROTOR_COUNT>
8

> <PUBCHEM_PHARMACOPHORE_FEATURES>
10
1 2 acceptor
1 3 acceptor
1 4 donor
1 5 donor
1 6 cation
1 6 donor
1 7 acceptor
6 16 17 18 19 21 22 rings
6 7 25 26 27 28 29 rings
6 8 10 11 12 13 14 rings

> <PUBCHEM_HEAVY_ATOM_COUNT>
29

> <PUBCHEM_ATOM_DEF_STEREO_COUNT>
0

> <PUBCHEM_ATOM_UDEF_STEREO_COUNT>
0

> <PUBCHEM_BOND_DEF_STEREO_COUNT>
1

> <PUBCHEM_BOND_UDEF_STEREO_COUNT>
0

> <PUBCHEM_ISOTOPIC_ATOM_COUNT>
0

> <PUBCHEM_COMPONENT_COUNT>
1

> <PUBCHEM_CACTVS_TAUTO_COUNT>
4

> <PUBCHEM_CONFORMER_ID>
00B9315E00000001

> <PUBCHEM_MMFF94_ENERGY>
94.8008

> <PUBCHEM_FEATURE_SELFOVERLAP>
50.749

> <PUBCHEM_SHAPE_FINGERPRINT>
10100884 174 18335983091561984098
10254770 206 18272646878898806751
10533779 1 9727349087637774674
10669705 251 18201164252528472534
10930396 42 15123508095704028611
10939801 23 18130223895653591868
11463208 1 17754186589475114435
11963148 33 18191302668609987986
12013929 112 17313369125389022959
12166972 35 18041000652630433972
12522641 68 10665236951248028224
13248334 5 18049163568415845572
13533116 47 18267589189919909729
1361 4 18191588759858104199
13782708 43 18187362146787603596
14068700 675 18410014308628280584
14344974 204 18194681463663292222
14359421 15 17676200247739188050
14428016 204 11600006561178307099
14565420 104 12031799054004562572
14671636 106 18412265005252315254
14919807 6 17604130568701674727
15230672 131 18334571305603449103
15347591 1 18411138022281497780
15803439 3 14201403772423056328
16126227 98 9439399134005095849
16992779 147 16485821780400238184
16993089 31 17386305289120038099
16994733 274 10447923953762754540
18393751 57 12391520775885128277
19841028 212 18408322219934965930
20028762 73 18411139100628895414
2026 5 18334574651204436843
208703 8 18408880745898330082
20982279 24 17750246966962649587
21033648 29 14117257039864150473
21307412 95 17240773903843998505
21585481 151 18200603480170403246
21585483 132 18113329796123773514
22002106 203 17968649421102415418
23522609 53 18048354173149231172
23569914 152 12036828139603444416
23569943 247 18409171035039658291
24983565 74 18122056770201071211
255183 313 16630518536115619926
270888 7 9799687095868772492
2748736 6 9943519696665976254
3383291 50 18409728460974410434
3504750 166 18343581850669771533
393628 194 10591460820688282538
397830 11 18059281099179824224
3986486 107 13623526823594733430
406291 66 18408321077653480810
42767 46 18333726910411911754
439807 62 18335142020493783869
474113 269 18341606032500664255
4756088 132 17335333226605008519
4760202 70 18260842510285325860
50009960 94 18200016486241369575
5104073 3 17775574164550289977
5718773 13 18408886230824482216
5874358 3 17774426305160965271
59682541 52 14056993898488644184
6636735 143 16271919411802700611
6712543 237 16415761929031104039
7970288 3 18411418372033513078
96874 4 18409729573212034502
9896288 288 17915184503152333064

> <PUBCHEM_SHAPE_MULTIPOLES>
557.87
26.6
4.43
1.37
13.6
0.77
0.06
-37.26
5.08
0.19
0.09
1.09
-0.04
-2.89

> <PUBCHEM_SHAPE_SELFOVERLAP>
1207.238

> <PUBCHEM_SHAPE_VOLUME>
304.5

> <PUBCHEM_COORDINATE_TYPE>
2
5
10

$$$$
